dynawo/sources/Modeler/DataInterface/PowSyblIIDM/test/resources/svc.xiidm
<?xml version="1.0" encoding="UTF-8"?>
<iidm:network xmlns:iidm="http://www.powsybl.org/schema/iidm/1_4"
              xmlns:vprpc="http://www.powsybl.org/schema/iidm/ext/voltage_per_reactive_power_control/1_0"
              id="test" caseDate="2022-01-01T00:00:00.000+01:00" forecastDistance="0" sourceFormat="test">
    <iidm:substation id="S1" country="FR">
        <iidm:voltageLevel id="VL1" nominalV="382.0" lowVoltageLimit="340.0" highVoltageLimit="420.0" topologyKind="BUS_BREAKER">
            <iidm:busBreakerTopology>
                <iidm:bus id="VL1_BUS1" v="410.0" angle="3.14"/>
            </iidm:busBreakerTopology>
            <iidm:staticVarCompensator id="SVC1" bMin="-0.01" bMax="0.02"
                voltageSetpoint="380.0" reactivePowerSetpoint="90.0"
                regulationMode="OFF"
                bus="VL1_BUS1" connectableBus="VL1_BUS1"/>
        </iidm:voltageLevel>
    </iidm:substation>
    <iidm:extension id="SVC1">
        <vprpc:voltagePerReactivePowerControl slope="0.1"/>
    </iidm:extension>
</iidm:network>
